MODEL 1
REMARK VINA RESULT:      -6.5      0.000      0.000
REMARK  4 active torsions:
REMARK  status: ('A' for Active; 'I' for Inactive)
REMARK    1  A    between atoms: O1_1  and  C1_5 
REMARK    2  A    between atoms: O1_1  and  C8_12 
REMARK    3  A    between atoms: O2_2  and  C7_11 
REMARK    4  A    between atoms: C2_6  and  C7_11 
ROOT
HETATM    1  C1  UNL     1      34.031 -28.466 -23.075  1.00  0.00     0.096 A 
HETATM    2  C2  UNL     1      33.684 -28.865 -24.366  1.00  0.00     0.071 A 
HETATM    3  C3  UNL     1      33.435 -27.339 -22.510  1.00  0.00     0.038 A 
HETATM    4  C4  UNL     1      32.740 -28.137 -25.091  1.00  0.00     0.021 A 
HETATM    5  C5  UNL     1      32.491 -26.611 -23.234  1.00  0.00     0.003 A 
HETATM    6  C6  UNL     1      32.145 -27.010 -24.524  1.00  0.00     0.001 A 
ENDROOT
BRANCH   1   7
HETATM    7  O1  UNL     1      34.950 -29.164 -22.350  1.00  0.00    -0.278 OA
BRANCH   7   8
HETATM    8  C8  UNL     1      34.604 -29.333 -21.000  1.00  0.00     0.260 C 
HETATM    9  O4  UNL     1      33.638 -29.957 -20.581  1.00  0.00    -0.265 OA
HETATM   10  C9  UNL     1      35.598 -28.629 -20.124  1.00  0.00     0.126 C 
ENDBRANCH   7   8
ENDBRANCH   1   7
BRANCH   2  11
HETATM   11  C7  UNL     1      34.294 -30.040 -24.974  1.00  0.00     0.179 C 
HETATM   12  O3  UNL     1      33.700 -31.016 -25.423  1.00  0.00    -0.646 OA
BRANCH  11  13
HETATM   13  O2  UNL     1      35.652 -29.950 -25.000  1.00  0.00    -0.773 OA
HETATM   14  H8  UNL     1      36.078 -30.832 -24.936  1.00  0.00     0.167 HD
ENDBRANCH  11  13
ENDBRANCH   2  11
TORSDOF 4
ENDMDL
MODEL 2
REMARK VINA RESULT:      -5.5     22.644     23.853
REMARK  4 active torsions:
REMARK  status: ('A' for Active; 'I' for Inactive)
REMARK    1  A    between atoms: O1_1  and  C1_5 
REMARK    2  A    between atoms: O1_1  and  C8_12 
REMARK    3  A    between atoms: O2_2  and  C7_11 
REMARK    4  A    between atoms: C2_6  and  C7_11 
ROOT
HETATM    1  C1  UNL     1      28.779 -21.291  -1.269  1.00  0.00     0.096 A 
HETATM    2  C2  UNL     1      29.814 -20.357  -1.336  1.00  0.00     0.071 A 
HETATM    3  C3  UNL     1      27.877 -21.258  -0.206  1.00  0.00     0.038 A 
HETATM    4  C4  UNL     1      29.944 -19.390  -0.339  1.00  0.00     0.021 A 
HETATM    5  C5  UNL     1      28.008 -20.291   0.791  1.00  0.00     0.003 A 
HETATM    6  C6  UNL     1      29.042 -19.358   0.724  1.00  0.00     0.001 A 
ENDROOT
BRANCH   1   7
HETATM    7  O1  UNL     1      28.632 -22.243  -2.234  1.00  0.00    -0.278 OA
BRANCH   7   8
HETATM    8  C8  UNL     1      28.495 -23.547  -1.734  1.00  0.00     0.260 C 
HETATM    9  O4  UNL     1      27.528 -24.279  -1.899  1.00  0.00    -0.265 OA
HETATM   10  C9  UNL     1      29.718 -23.929  -0.952  1.00  0.00     0.126 C 
ENDBRANCH   7   8
ENDBRANCH   1   7
BRANCH   2  11
HETATM   11  C7  UNL     1      30.765 -20.374  -2.438  1.00  0.00     0.179 C 
HETATM   12  O3  UNL     1      30.871 -19.526  -3.319  1.00  0.00    -0.646 OA
BRANCH  11  13
HETATM   13  O2  UNL     1      31.567 -21.474  -2.399  1.00  0.00    -0.773 OA
HETATM   14  H8  UNL     1      32.512 -21.233  -2.292  1.00  0.00     0.167 HD
ENDBRANCH  11  13
ENDBRANCH   2  11
TORSDOF 4
ENDMDL
MODEL 3
REMARK VINA RESULT:      -5.4     37.018     37.768
REMARK  4 active torsions:
REMARK  status: ('A' for Active; 'I' for Inactive)
REMARK    1  A    between atoms: O1_1  and  C1_5 
REMARK    2  A    between atoms: O1_1  and  C8_12 
REMARK    3  A    between atoms: O2_2  and  C7_11 
REMARK    4  A    between atoms: C2_6  and  C7_11 
ROOT
HETATM    1  C1  UNL     1       0.114 -46.091 -19.175  1.00  0.00     0.096 A 
HETATM    2  C2  UNL     1       1.366 -46.403 -19.708  1.00  0.00     0.071 A 
HETATM    3  C3  UNL     1      -1.032 -46.701 -19.683  1.00  0.00     0.038 A 
HETATM    4  C4  UNL     1       1.469 -47.326 -20.749  1.00  0.00     0.021 A 
HETATM    5  C5  UNL     1      -0.929 -47.624 -20.724  1.00  0.00     0.003 A 
HETATM    6  C6  UNL     1       0.321 -47.936 -21.257  1.00  0.00     0.001 A 
ENDROOT
BRANCH   1   7
HETATM    7  O1  UNL     1      -0.007 -45.194 -18.157  1.00  0.00    -0.278 OA
BRANCH   7   8
HETATM    8  C8  UNL     1      -0.596 -43.977 -18.534  1.00  0.00     0.260 C 
HETATM    9  O4  UNL     1      -0.233 -43.261 -19.458  1.00  0.00    -0.265 OA
HETATM   10  C9  UNL     1      -1.753 -43.665 -17.630  1.00  0.00     0.126 C 
ENDBRANCH   7   8
ENDBRANCH   1   7
BRANCH   2  11
HETATM   11  C7  UNL     1       2.575 -45.779 -19.191  1.00  0.00     0.179 C 
HETATM   12  O3  UNL     1       2.892 -44.599 -19.311  1.00  0.00    -0.646 OA
BRANCH  11  13
HETATM   13  O2  UNL     1       3.363 -46.671 -18.529  1.00  0.00    -0.773 OA
HETATM   14  H8  UNL     1       3.897 -47.215 -19.146  1.00  0.00     0.167 HD
ENDBRANCH  11  13
ENDBRANCH   2  11
TORSDOF 4
ENDMDL
MODEL 4
REMARK VINA RESULT:      -5.4     22.268     24.209
REMARK  4 active torsions:
REMARK  status: ('A' for Active; 'I' for Inactive)
REMARK    1  A    between atoms: O1_1  and  C1_5 
REMARK    2  A    between atoms: O1_1  and  C8_12 
REMARK    3  A    between atoms: O2_2  and  C7_11 
REMARK    4  A    between atoms: C2_6  and  C7_11 
ROOT
HETATM    1  C1  UNL     1      29.768 -19.833  -1.019  1.00  0.00     0.096 A 
HETATM    2  C2  UNL     1      30.436 -20.462  -2.071  1.00  0.00     0.071 A 
HETATM    3  C3  UNL     1      28.557 -20.347  -0.556  1.00  0.00     0.038 A 
HETATM    4  C4  UNL     1      29.893 -21.605  -2.657  1.00  0.00     0.021 A 
HETATM    5  C5  UNL     1      28.014 -21.490  -1.142  1.00  0.00     0.003 A 
HETATM    6  C6  UNL     1      28.682 -22.118  -2.192  1.00  0.00     0.001 A 
ENDROOT
BRANCH   1   7
HETATM    7  O1  UNL     1      30.283 -18.716  -0.432  1.00  0.00    -0.278 OA
BRANCH   7   8
HETATM    8  C8  UNL     1      30.831 -18.941   0.841  1.00  0.00     0.260 C 
HETATM    9  O4  UNL     1      31.681 -19.777   1.117  1.00  0.00    -0.265 OA
HETATM   10  C9  UNL     1      30.218 -17.999   1.836  1.00  0.00     0.126 C 
ENDBRANCH   7   8
ENDBRANCH   1   7
BRANCH   2  11
HETATM   11  C7  UNL     1      31.702 -19.942  -2.569  1.00  0.00     0.179 C 
HETATM   12  O3  UNL     1      31.863 -19.268  -3.582  1.00  0.00    -0.646 OA
BRANCH  11  13
HETATM   13  O2  UNL     1      32.745 -20.292  -1.766  1.00  0.00    -0.773 OA
HETATM   14  H8  UNL     1      32.443 -20.764  -0.960  1.00  0.00     0.167 HD
ENDBRANCH  11  13
ENDBRANCH   2  11
TORSDOF 4
ENDMDL
MODEL 5
REMARK VINA RESULT:      -5.4     37.464     38.278
REMARK  4 active torsions:
REMARK  status: ('A' for Active; 'I' for Inactive)
REMARK    1  A    between atoms: O1_1  and  C1_5 
REMARK    2  A    between atoms: O1_1  and  C8_12 
REMARK    3  A    between atoms: O2_2  and  C7_11 
REMARK    4  A    between atoms: C2_6  and  C7_11 
ROOT
HETATM    1  C1  UNL     1      -0.910 -45.152 -19.226  1.00  0.00     0.096 A 
HETATM    2  C2  UNL     1      -1.052 -43.764 -19.175  1.00  0.00     0.071 A 
HETATM    3  C3  UNL     1      -1.907 -45.934 -19.807  1.00  0.00     0.038 A 
HETATM    4  C4  UNL     1      -2.192 -43.161 -19.706  1.00  0.00     0.021 A 
HETATM    5  C5  UNL     1      -3.047 -45.331 -20.338  1.00  0.00     0.003 A 
HETATM    6  C6  UNL     1      -3.189 -43.945 -20.286  1.00  0.00     0.001 A 
ENDROOT
BRANCH   1   7
HETATM    7  O1  UNL     1       0.198 -45.760 -18.715  1.00  0.00    -0.278 OA
BRANCH   7   8
HETATM    8  C8  UNL     1       1.156 -46.107 -19.680  1.00  0.00     0.260 C 
HETATM    9  O4  UNL     1       1.841 -45.324 -20.324  1.00  0.00    -0.265 OA
HETATM   10  C9  UNL     1       1.226 -47.600 -19.819  1.00  0.00     0.126 C 
ENDBRANCH   7   8
ENDBRANCH   1   7
BRANCH   2  11
HETATM   11  C7  UNL     1      -0.021 -42.929 -18.575  1.00  0.00     0.179 C 
HETATM   12  O3  UNL     1       0.887 -42.356 -19.169  1.00  0.00    -0.646 OA
BRANCH  11  13
HETATM   13  O2  UNL     1      -0.166 -42.837 -17.224  1.00  0.00    -0.773 OA
HETATM   14  H8  UNL     1       0.697 -42.730 -16.770  1.00  0.00     0.167 HD
ENDBRANCH  11  13
ENDBRANCH   2  11
TORSDOF 4
ENDMDL
MODEL 6
REMARK VINA RESULT:      -5.4     22.602     24.091
REMARK  4 active torsions:
REMARK  status: ('A' for Active; 'I' for Inactive)
REMARK    1  A    between atoms: O1_1  and  C1_5 
REMARK    2  A    between atoms: O1_1  and  C8_12 
REMARK    3  A    between atoms: O2_2  and  C7_11 
REMARK    4  A    between atoms: C2_6  and  C7_11 
ROOT
HETATM    1  C1  UNL     1      30.441  -5.585 -24.860  1.00  0.00     0.096 A 
HETATM    2  C2  UNL     1      29.696  -4.455 -25.199  1.00  0.00     0.071 A 
HETATM    3  C3  UNL     1      30.328  -6.748 -25.620  1.00  0.00     0.038 A 
HETATM    4  C4  UNL     1      28.839  -4.490 -26.299  1.00  0.00     0.021 A 
HETATM    5  C5  UNL     1      29.471  -6.783 -26.720  1.00  0.00     0.003 A 
HETATM    6  C6  UNL     1      28.726  -5.654 -27.058  1.00  0.00     0.001 A 
ENDROOT
BRANCH   1   7
HETATM    7  O1  UNL     1      31.286  -5.570 -23.790  1.00  0.00    -0.278 OA
BRANCH   7   8
HETATM    8  C8  UNL     1      31.017  -6.562 -22.835  1.00  0.00     0.260 C 
HETATM    9  O4  UNL     1      31.685  -7.569 -22.640  1.00  0.00    -0.265 OA
HETATM   10  C9  UNL     1      29.771  -6.216 -22.074  1.00  0.00     0.126 C 
ENDBRANCH   7   8
ENDBRANCH   1   7
BRANCH   2  11
HETATM   11  C7  UNL     1      29.800  -3.229 -24.420  1.00  0.00     0.179 C 
HETATM   12  O3  UNL     1      28.867  -2.533 -24.032  1.00  0.00    -0.646 OA
BRANCH  11  13
HETATM   13  O2  UNL     1      31.096  -2.910 -24.148  1.00  0.00    -0.773 OA
HETATM   14  H8  UNL     1      31.208  -2.590 -23.227  1.00  0.00     0.167 HD
ENDBRANCH  11  13
ENDBRANCH   2  11
TORSDOF 4
ENDMDL
MODEL 7
REMARK VINA RESULT:      -5.3     35.599     37.236
REMARK  4 active torsions:
REMARK  status: ('A' for Active; 'I' for Inactive)
REMARK    1  A    between atoms: O1_1  and  C1_5 
REMARK    2  A    between atoms: O1_1  and  C8_12 
REMARK    3  A    between atoms: O2_2  and  C7_11 
REMARK    4  A    between atoms: C2_6  and  C7_11 
ROOT
HETATM    1  C1  UNL     1       0.640 -13.762 -19.530  1.00  0.00     0.096 A 
HETATM    2  C2  UNL     1       0.926 -12.471 -19.086  1.00  0.00     0.071 A 
HETATM    3  C3  UNL     1       1.606 -14.763 -19.434  1.00  0.00     0.038 A 
HETATM    4  C4  UNL     1       2.178 -12.182 -18.544  1.00  0.00     0.021 A 
HETATM    5  C5  UNL     1       2.859 -14.474 -18.892  1.00  0.00     0.003 A 
HETATM    6  C6  UNL     1       3.144 -13.183 -18.448  1.00  0.00     0.001 A 
ENDROOT
BRANCH   1   7
HETATM    7  O1  UNL     1      -0.579 -14.066 -20.060  1.00  0.00    -0.278 OA
BRANCH   7   8
HETATM    8  C8  UNL     1      -0.574 -14.214 -21.456  1.00  0.00     0.260 C 
HETATM    9  O4  UNL     1      -0.359 -13.326 -22.270  1.00  0.00    -0.265 OA
HETATM   10  C9  UNL     1      -0.879 -15.637 -21.821  1.00  0.00     0.126 C 
ENDBRANCH   7   8
ENDBRANCH   1   7
BRANCH   2  11
HETATM   11  C7  UNL     1      -0.070 -11.412 -19.176  1.00  0.00     0.179 C 
HETATM   12  O3  UNL     1       0.092 -10.302 -19.675  1.00  0.00    -0.646 OA
BRANCH  11  13
HETATM   13  O2  UNL     1      -1.259 -11.785 -18.626  1.00  0.00    -0.773 OA
HETATM   14  H8  UNL     1      -1.517 -12.692 -18.896  1.00  0.00     0.167 HD
ENDBRANCH  11  13
ENDBRANCH   2  11
TORSDOF 4
ENDMDL
MODEL 8
REMARK VINA RESULT:      -5.1     37.845     38.591
REMARK  4 active torsions:
REMARK  status: ('A' for Active; 'I' for Inactive)
REMARK    1  A    between atoms: O1_1  and  C1_5 
REMARK    2  A    between atoms: O1_1  and  C8_12 
REMARK    3  A    between atoms: O2_2  and  C7_11 
REMARK    4  A    between atoms: C2_6  and  C7_11 
ROOT
HETATM    1  C1  UNL     1      -0.166 -44.943 -19.721  1.00  0.00     0.096 A 
HETATM    2  C2  UNL     1      -0.780 -46.135 -20.107  1.00  0.00     0.071 A 
HETATM    3  C3  UNL     1       1.224 -44.865 -19.650  1.00  0.00     0.038 A 
HETATM    4  C4  UNL     1      -0.002 -47.249 -20.422  1.00  0.00     0.021 A 
HETATM    5  C5  UNL     1       2.003 -45.979 -19.965  1.00  0.00     0.003 A 
HETATM    6  C6  UNL     1       1.389 -47.171 -20.350  1.00  0.00     0.001 A 
ENDROOT
BRANCH   1   7
HETATM    7  O1  UNL     1      -0.908 -43.842 -19.411  1.00  0.00    -0.278 OA
BRANCH   7   8
HETATM    8  C8  UNL     1      -0.819 -43.452 -18.066  1.00  0.00     0.260 C 
HETATM    9  O4  UNL     1       0.007 -42.680 -17.597  1.00  0.00    -0.265 OA
HETATM   10  C9  UNL     1      -1.893 -44.127 -17.264  1.00  0.00     0.126 C 
ENDBRANCH   7   8
ENDBRANCH   1   7
BRANCH   2  11
HETATM   11  C7  UNL     1      -2.231 -46.236 -20.189  1.00  0.00     0.179 C 
HETATM   12  O3  UNL     1      -2.932 -47.080 -19.639  1.00  0.00    -0.646 OA
BRANCH  11  13
HETATM   13  O2  UNL     1      -2.763 -45.259 -20.973  1.00  0.00    -0.773 OA
HETATM   14  H8  UNL     1      -2.279 -44.411 -20.880  1.00  0.00     0.167 HD
ENDBRANCH  11  13
ENDBRANCH   2  11
TORSDOF 4
ENDMDL
MODEL 9
REMARK VINA RESULT:      -4.9     21.882     23.217
REMARK  4 active torsions:
REMARK  status: ('A' for Active; 'I' for Inactive)
REMARK    1  A    between atoms: O1_1  and  C1_5 
REMARK    2  A    between atoms: O1_1  and  C8_12 
REMARK    3  A    between atoms: O2_2  and  C7_11 
REMARK    4  A    between atoms: C2_6  and  C7_11 
ROOT
HETATM    1  C1  UNL     1      30.751 -21.879  -2.090  1.00  0.00     0.096 A 
HETATM    2  C2  UNL     1      31.153 -22.701  -1.036  1.00  0.00     0.071 A 
HETATM    3  C3  UNL     1      29.394 -21.723  -2.374  1.00  0.00     0.038 A 
HETATM    4  C4  UNL     1      30.197 -23.366  -0.268  1.00  0.00     0.021 A 
HETATM    5  C5  UNL     1      28.439 -22.388  -1.606  1.00  0.00     0.003 A 
HETATM    6  C6  UNL     1      28.841 -23.210  -0.553  1.00  0.00     0.001 A 
ENDROOT
BRANCH   1   7
HETATM    7  O1  UNL     1      31.668 -21.219  -2.851  1.00  0.00    -0.278 OA
BRANCH   7   8
HETATM    8  C8  UNL     1      31.693 -19.831  -2.643  1.00  0.00     0.260 C 
HETATM    9  O4  UNL     1      31.861 -19.271  -1.567  1.00  0.00    -0.265 OA
HETATM   10  C9  UNL     1      31.476 -19.114  -3.943  1.00  0.00     0.126 C 
ENDBRANCH   7   8
ENDBRANCH   1   7
BRANCH   2  11
HETATM   11  C7  UNL     1      32.564 -22.876  -0.721  1.00  0.00     0.179 C 
HETATM   12  O3  UNL     1      33.248 -23.862  -0.976  1.00  0.00    -0.646 OA
BRANCH  11  13
HETATM   13  O2  UNL     1      33.079 -21.788  -0.084  1.00  0.00    -0.773 OA
HETATM   14  H8  UNL     1      33.036 -20.983  -0.642  1.00  0.00     0.167 HD
ENDBRANCH  11  13
ENDBRANCH   2  11
TORSDOF 4
ENDMDL
