REMARK  4 active torsions:
REMARK  status: ('A' for Active; 'I' for Inactive)
REMARK    1  A    between atoms: O1_1  and  C1_5 
REMARK    2  A    between atoms: O1_1  and  C8_12 
REMARK    3  A    between atoms: O2_2  and  C7_11 
REMARK    4  A    between atoms: C2_6  and  C7_11 
ROOT
HETATM    1  C1  UNL     1      -0.086   0.609   0.440  1.00  0.00     0.096 A 
HETATM    2  C2  UNL     1      -0.793  -0.552   0.124  1.00  0.00     0.071 A 
HETATM    3  C3  UNL     1      -0.729   1.846   0.413  1.00  0.00     0.038 A 
HETATM    4  C4  UNL     1      -2.143  -0.474  -0.218  1.00  0.00     0.021 A 
HETATM    5  C5  UNL     1      -2.079   1.924   0.071  1.00  0.00     0.003 A 
HETATM    6  C6  UNL     1      -2.785   0.764  -0.245  1.00  0.00     0.001 A 
ENDROOT
BRANCH   1   7
HETATM    7  O1  UNL     1       1.233   0.554   0.779  1.00  0.00    -0.278 OA
BRANCH   7   8
HETATM    8  C8  UNL     1       2.109   0.672  -0.311  1.00  0.00     0.260 C 
HETATM    9  O4  UNL     1       1.781   0.811  -1.482  1.00  0.00    -0.265 OA
HETATM   10  C9  UNL     1       3.531   0.600   0.164  1.00  0.00     0.126 C 
ENDBRANCH   7   8
ENDBRANCH   1   7
BRANCH   2  11
HETATM   11  C7  UNL     1      -0.141  -1.854   0.148  1.00  0.00     0.179 C 
HETATM   12  O3  UNL     1       0.796  -2.184   0.869  1.00  0.00    -0.646 OA
BRANCH  11  13
HETATM   13  O2  UNL     1      -0.695  -2.715  -0.750  1.00  0.00    -0.773 OA
HETATM   14  H8  UNL     1      -0.256  -3.592  -0.734  1.00  0.00     0.167 HD
ENDBRANCH  11  13
ENDBRANCH   2  11
TORSDOF 4
